
#======================================================================
# CRYSTAL DATA
#----------------------------------------------------------------------
data_VESTA_phase_1

_chemical_name_common                  ''
_cell_length_a                         9.259564
_cell_length_b                         9.259564
_cell_length_c                         9.259564
_cell_angle_alpha                      59.999992
_cell_angle_beta                       59.999992
_cell_angle_gamma                      59.999992
_cell_volume                           561.379561
_space_group_name_H-M_alt              'P 1'
_space_group_IT_number                 1

loop_
_space_group_symop_operation_xyz
   'x, y, z'

loop_
   _atom_site_label
   _atom_site_occupancy
   _atom_site_fract_x
   _atom_site_fract_y
   _atom_site_fract_z
   _atom_site_adp_type
   _atom_site_B_iso_or_equiv
   _atom_site_type_symbol
   Fe1         1.0     0.250000     0.250000     0.250000    Biso  1.000000 Fe
   Fe2         1.0     0.750000     0.750000     0.750000    Biso  1.000000 Fe
   Mn1         1.0     0.352140     0.000000     0.000000    Biso  1.000000 Mn
   Mn2         1.0     0.647860     0.000000     0.000000    Biso  1.000000 Mn
   Mn3         1.0     0.000000     0.352140     0.647860    Biso  1.000000 Mn
   Mn4         1.0     0.000000     0.647860     0.352140    Biso  1.000000 Mn
   Mn5         1.0     0.000000     0.352140     0.000000    Biso  1.000000 Mn
   Mn6         1.0     0.000000     0.647860     0.000000    Biso  1.000000 Mn
   Mn7         1.0     0.647860     0.000000     0.352140    Biso  1.000000 Mn
   Mn8         1.0     0.352140     0.000000     0.647860    Biso  1.000000 Mn
   Mn9         1.0     0.000000     0.000000     0.352140    Biso  1.000000 Mn
   Mn10        1.0     0.000000     0.000000     0.647860    Biso  1.000000 Mn
   Mn11        1.0     0.352140     0.647860     0.000000    Biso  1.000000 Mn
   Mn12        1.0     0.647860     0.352140     0.000000    Biso  1.000000 Mn
   Mn13        1.0     0.000000     0.000000     0.000000    Biso  1.000000 Mn
   Mn14        1.0     0.500000     0.500000     0.500000    Biso  1.000000 Mn
   Cl1         1.0     0.689000     0.311000     0.311000    Biso  1.000000 Cl
   Cl2         1.0     0.311000     0.689000     0.689000    Biso  1.000000 Cl
   Cl3         1.0     0.311000     0.689000     0.311000    Biso  1.000000 Cl
   Cl4         1.0     0.689000     0.311000     0.689000    Biso  1.000000 Cl
   Cl5         1.0     0.311000     0.311000     0.689000    Biso  1.000000 Cl
   Cl6         1.0     0.689000     0.689000     0.311000    Biso  1.000000 Cl
   O1          1.0     0.403900     0.096100     0.096100    Biso  1.000000 O
   O2          1.0     0.596100     0.903900     0.903900    Biso  1.000000 O
   O3          1.0     0.096100     0.403900     0.403900    Biso  1.000000 O
   O4          1.0     0.903900     0.596100     0.596100    Biso  1.000000 O
   O5          1.0     0.096100     0.403900     0.096100    Biso  1.000000 O
   O6          1.0     0.903900     0.596100     0.903900    Biso  1.000000 O
   O7          1.0     0.403900     0.096100     0.403900    Biso  1.000000 O
   O8          1.0     0.596100     0.903900     0.596100    Biso  1.000000 O
   O9          1.0     0.096100     0.096100     0.403900    Biso  1.000000 O
   O10         1.0     0.903900     0.903900     0.596100    Biso  1.000000 O
   O11         1.0     0.403900     0.403900     0.096100    Biso  1.000000 O
   O12         1.0     0.596100     0.596100     0.903900    Biso  1.000000 O
   O13         1.0     0.100300     0.100300     0.100300    Biso  1.000000 O
   O14         1.0     0.899700     0.899700     0.899700    Biso  1.000000 O
   O15         1.0     0.100300     0.100300     0.699100    Biso  1.000000 O
   O16         1.0     0.899700     0.899700     0.300900    Biso  1.000000 O
   O17         1.0     0.100300     0.699100     0.100300    Biso  1.000000 O
   O18         1.0     0.899700     0.300900     0.899700    Biso  1.000000 O
   O19         1.0     0.699100     0.100300     0.100300    Biso  1.000000 O
   O20         1.0     0.300900     0.899700     0.899700    Biso  1.000000 O
