# CIF file generated by openbabel 2.4.1, see http://openbabel.sf.net
data_I
_chemical_name_common ''
_cell_length_a 6.12115
_cell_length_b 6.12115
_cell_length_c 6.13008
_cell_angle_alpha 59.9518
_cell_angle_beta 59.9518
_cell_angle_gamma 59.6986
loop_
    _atom_site_label
    _atom_site_type_symbol
    _atom_site_fract_x
    _atom_site_fract_y
    _atom_site_fract_z
    _atom_site_occupancy
    Fe0     Fe   0.99122   0.99123   0.00878   1.000
    Fe1     Fe   0.25879   0.25878   0.24122   1.000
    Fe2     Fe   0.62501   0.62501   0.12498   1.000
    Fe3     Fe   0.62501   0.62501   0.62500   1.000
    Mn4     Mn   0.12499   0.62501   0.62500   1.000
    Mn5     Mn   0.62501   0.12499   0.62500   1.000
    O6      O    0.38848   0.38847   0.36379   1.000
    O7      O    0.39398   0.86235   0.37184   1.000
    O8      O    0.38848   0.38847   0.85926   1.000
    O9      O    0.86235   0.39398   0.37183   1.000
    O10     O    0.38761   0.85603   0.87818   1.000
    O11     O    0.85603   0.38762   0.87818   1.000
    O12     O    0.86153   0.86153   0.39073   1.000
    O13     O    0.86153   0.86153   0.88622   1.000
